-------------------------------------------------------
          Amber 14 SANDER                              2014
          -------------------------------------------------------

  [-O]verwriting output

File Assignments:

 Here is the input file:

 test of Jarzynski for a distance in DNA
 &cntrl
   nstlim=1000, cut=12.0, igb=1, saltcon=0.1,
   ntpr=100, ntwr=100000, ntt=3, gamma_ln=5.0,
   ntx=5, irest=1, ntwx=0, ig = 99931,
   ntc=2, ntf=2, tol=0.000001,
   dt=0.002, ntb=0, tempi=300., temp0=300.,
   jar=1,
 /
 &wt type='DUMPFREQ', istep1=1 /
 &wt type='END'   /
DISANG=dist.RST
DUMPAVE=dist_vs_t.000
LISTIN=POUT
LISTOUT=POUT

--------------------------------------------------------------------------------
   1.  RESOURCE   USE:
--------------------------------------------------------------------------------

 NATOM  =     640 NTYPES =      14 NBONH =     220 MBONA  =     468
 NTHETH =     500 MTHETA =     726 NPHIH =     918 MPHIA  =    1226
 NHPARM =       0 NPARM  =       0 NNB   =    3568 NRES   =      20
 NBONA  =     468 NTHETA =     726 NPHIA =    1226 NUMBND =      35
 NUMANG =      72 NPTRA  =      33 NATYP =      24 NPHB   =       0
 IFBOX  =       0 NMXRS  =      35 IFCAP =       0 NEXTRA =       0
 NCOPY  =       0

--------------------------------------------------------------------------------
   2.  CONTROL  DATA  FOR  THE  RUN
--------------------------------------------------------------------------------

title

General flags:
     imin    =       0, nmropt  =       1

Nature and format of input:
     ntx     =       5, irest   =       1, ntrx    =       1

Nature and format of output:
     ntxo    =       1, ntpr    =     100, ntrx    =       1, ntwr    =  100000
     iwrap   =       0, ntwx    =       0, ntwv    =       0, ntwe    =       0
     ioutfm  =       0, ntwprt  =       0, idecomp =       0, rbornstat=      0

Potential function:
     ntf     =       2, ntb     =       0, igb     =       1, nsnb    =      25
     ipol    =       0, gbsa    =       0, iesp    =       0
     dielc   =   1.00000, cut     =  12.00000, intdiel =   1.00000
     saltcon =   0.10000, offset  =   0.09000, gbalpha=    1.00000
     gbbeta  =   0.00000, gbgamma =   0.00000, surften =   0.00500
     rdt     =   0.00000, rgbmax  =  25.00000  extdiel =  78.50000
     alpb  =        0

Frozen or restrained atoms:
     ibelly  =       0, ntr     =       0

Molecular dynamics:
     nstlim  =      1000, nscm    =      1000, nrespa  =         1
     t       =   0.00000, dt      =   0.00200, vlimit  =  20.00000

Langevin dynamics temperature regulation:
     ig      =   99931
     temp0   = 300.00000, tempi   = 300.00000, gamma_ln=   5.00000

SHAKE:
     ntc     =       2, jfastw  =       0
     tol     =   0.00000

NMR refinement options:
     iscale  =       0, noeskp  =       1, ipnlty  =       1, mxsub   =       1
     scalm   = 100.00000, pencut  =   0.10000, tausw   =   0.10000

--------------------------------------------------------------------------------
   3.  ATOMIC COORDINATES AND VELOCITIES
--------------------------------------------------------------------------------

PDB 5DNB, Dickerson decamer
 begin time read from input coords =   130.000 ps

           Begin reading energy term weight changes/NMR restraints
 WEIGHT CHANGES:
 DUMPFREQ      1      0    0.000000    0.000000      0      0
                         ** No weight changes given **

 RESTRAINTS:
 Requested file redirections:
  DISANG    = dist.RST
  DUMPAVE   = dist_vs_t.000
  LISTIN    = POUT
  LISTOUT   = POUT
 Restraints will be read from file: dist.RST
Here are comments from the DISANG input file:

 jar option running
******
 C4' (  134)-C4' (  485)                            NSTEP1=     0 NSTEP2=  1000
R1 = -85.000 R2 =  15.000 R3 =  15.000 R4 = 115.000 RK2 =5000.000 RK3 = 5000.000
R1A= -80.000 R2A=  20.000 R3A=  20.000 R4A= 120.000 RK2A=5000.000 RK3A= 5000.000
 Rcurr:   15.124  Rcurr-(R2+R3)/2:    0.124  MIN(Rcurr-R2,Rcurr-R3):    0.124
                       Number of restraints read =     1

                  Done reading weight changes/NMR restraints

 Number of triangulated 3-point waters found:        0

--------------------------------------------------------------------------------
   4.  RESULTS
 NSTEP =      100   TIME(PS) =     130.200  TEMP(K) =   306.37  PRESS =     0.0
 Etot   =     -3555.6629  EKtot   =       517.5002  EPtot      =     -4073.1632
 BOND   =       174.7045  ANGLE   =       338.2921  DIHED      =       410.3289
 1-4 NB =       160.3255  1-4 EEL =     -2294.9256  VDWAALS    =      -358.1246
 EELEC  =       275.8943  EGB     =     -2790.6165  RESTRAINT  =        10.9583
 EAMBER (non-restraint)  =     -4084.1215
 ------------------------------------------------------------------------------

      A V E R A G E S   O V E R    1000 S T E P S

 NSTEP =     1000   TIME(PS) =     132.000  TEMP(K) =   304.06  PRESS =     0.0
 Etot   =     -3527.1321  EKtot   =       513.5959  EPtot      =     -4040.7280
 BOND   =       177.3580  ANGLE   =       348.1800  DIHED      =       423.0499
 1-4 NB =       165.1157  1-4 EEL =     -2307.6147  VDWAALS    =      -338.9773
 EELEC  =       109.7096  EGB     =     -2634.7991  RESTRAINT  =        17.2500
 EAMBER (non-restraint)  =     -4057.9779
 ------------------------------------------------------------------------------

      R M S  F L U C T U A T I O N S

 NSTEP =     1000   TIME(PS) =     132.000  TEMP(K) =     9.64  PRESS =     0.0
 Etot   =        36.7149  EKtot   =        16.2783  EPtot      =        39.8006
 BOND   =        11.1642  ANGLE   =        13.6353  DIHED      =         9.6620
 1-4 NB =         5.3189  1-4 EEL =        15.4355  VDWAALS    =         8.6531
 EELEC  =       187.1923  EGB     =       184.1089  RESTRAINT  =        41.0298
 EAMBER (non-restraint)  =        -1.2292
 ------------------------------------------------------------------------------
