-------------------------------------------------------
          Amber 14 SANDER                              2014
          -------------------------------------------------------

  [-O]verwriting output

File Assignments:

 Here is the input file:

inpcrd->refcrd tgtmd: regular vacuum md, backbone restrained
 &cntrl
        imin = 0, ntx = 1, nstlim = 1000,
        dt = 0.002, ntc = 2, ntf = 2, tol = 0.000001,
        tempi = 300.0, temp0 = 300.0,
        cut = 10.0,
        ntpr = 50, ntwx = 50, ntwr = 500,
        ntb = 0, ntt = 1, tautp = 0.5, ntp = 0,
        igb = 0, nscm = 0, nmropt = 1, ntr = 1,
        restraintmask="@CA,C,O,N,H,HA", restraint_wt=5.0,
        itgtmd = 1, tgtrmsd = 5.516, tgtmdfrc = 2.0,
        tgtrmsmask=":TYR & !@CA,C,O,N,H,HA",
 /
 &ewald
        use_pme = 0, vdwmeth = 0, eedmeth = 4,
 /
 &wt
        TYPE='TGTRMSD', istep1=1, istep2=1000,
        value1 = 5.516, value2 = 0.0,
 /
 &wt
   type="END",
 /

--------------------------------------------------------------------------------
   1.  RESOURCE   USE:
--------------------------------------------------------------------------------

 NATOM  =      44 NTYPES =      11 NBONH =      21 MBONA  =      23
 NTHETH =      45 MTHETA =      31 NPHIH =      80 MPHIA  =      47
 NHPARM =       0 NPARM  =       0 NNB   =     225 NRES   =       3
 NBONA  =      23 NTHETA =      31 NPHIA =      47 NUMBND =      18
 NUMANG =      33 NPTRA  =      18 NATYP =      14 NPHB   =       0
 IFBOX  =       0 NMXRS  =      22 IFCAP =       0 NEXTRA =       0
 NCOPY  =       0

--------------------------------------------------------------------------------
   2.  CONTROL  DATA  FOR  THE  RUN
--------------------------------------------------------------------------------

General flags:
     imin    =       0, nmropt  =       1

Nature and format of input:
     ntx     =       1, irest   =       0, ntrx    =       1

Nature and format of output:
     ntxo    =       1, ntpr    =      50, ntrx    =       1, ntwr    =     500
     iwrap   =       0, ntwx    =      50, ntwv    =       0, ntwe    =       0
     ioutfm  =       0, ntwprt  =       0, idecomp =       0, rbornstat=      0

Potential function:
     ntf     =       2, ntb     =       0, igb     =       0, nsnb    =      25
     ipol    =       0, gbsa    =       0, iesp    =       0
     dielc   =   1.00000, cut     =  10.00000, intdiel =   1.00000

Frozen or restrained atoms:
     ibelly  =       0, ntr     =       1
     restraint_wt =   5.00000

Molecular dynamics:
     nstlim  =      1000, nscm    =         0, nrespa  =         1
     t       =   0.00000, dt      =   0.00200, vlimit  =  20.00000

Berendsen (weak-coupling) temperature regulation:
     temp0   = 300.00000, tempi   = 300.00000, tautp   =   0.50000

SHAKE:
     ntc     =       2, jfastw  =       0
     tol     =   0.00000

NMR refinement options:
     iscale  =       0, noeskp  =       1, ipnlty  =       1, mxsub   =       1
     scalm   = 100.00000, pencut  =   0.10000, tausw   =   0.10000

Targeted molecular dynamics:
     tgtrmsd =   5.51600, tgtmdfrc=   2.00000

    LOADING THE CONSTRAINED ATOMS AS GROUPS

    LOADING THE TARGETED MD ATOMS AS GROUPS

   5.  REFERENCE ATOM COORDINATES

     Mask @CA,C,O,N,H,HA; matches    17 atoms
     Mask ":TYR & !@CA,C,O,N,H,HA" matches    16 atoms

--------------------------------------------------------------------------------
   3.  ATOMIC COORDINATES AND VELOCITIES
--------------------------------------------------------------------------------

 begin time read from input coords =     0.000 ps

           Begin reading energy term weight changes/NMR restraints
 WEIGHT CHANGES:
 TGTRMSD       1   1000    5.516000    0.000000      0      0

 RESTRAINTS:
                          ** No restraint defined **

                  Done reading weight changes/NMR restraints

 Number of triangulated 3-point waters found:        0

     Sum of charges from parm topology file =  -0.00000000
     Forcing neutrality...

--------------------------------------------------------------------------------
   4.  RESULTS
 NSTEP =        0   TIME(PS) =       0.000  TEMP(K) =   352.21  PRESS =     0.0
 Etot   =        71.9151  EKtot   =        38.8450  EPtot      =        33.0701
 BOND   =         0.8576  ANGLE   =         4.6686  DIHED      =         8.2100
 1-4 NB =        16.1547  1-4 EEL =       214.7840  VDWAALS    =        52.7343
 EELEC  =      -264.3393  EHBOND  =         0.0000  RESTRAINT  =         0.0000
 EAMBER (non-restraint)  =        33.0701
Current RMSD from reference:    5.516
Current target RMSD:            5.516
 ------------------------------------------------------------------------------

      A V E R A G E S   O V E R    1000 S T E P S

 NSTEP =     1000   TIME(PS) =       2.000  TEMP(K) =   417.36  PRESS =     0.0
 Etot   =        64.4205  EKtot   =        46.0300  EPtot      =        18.3905
 BOND   =         8.3352  ANGLE   =        21.6557  DIHED      =        15.1591
 1-4 NB =        12.5151  1-4 EEL =       213.5146  VDWAALS    =        -3.1914
 EELEC  =      -260.2705  EHBOND  =         0.0000  RESTRAINT  =        10.6727
 EAMBER (non-restraint)  =         7.7177
Current RMSD from reference:    0.990
Current target RMSD:            0.006
 ------------------------------------------------------------------------------

      R M S  F L U C T U A T I O N S

 NSTEP =     1000   TIME(PS) =       2.000  TEMP(K) =    61.38  PRESS =     0.0
 Etot   =         7.6008  EKtot   =         6.7695  EPtot      =         8.1078
 BOND   =         2.5729  ANGLE   =         4.6774  DIHED      =         2.8467
 1-4 NB =         2.2154  1-4 EEL =         3.8020  VDWAALS    =         2.9921
 EELEC  =         9.0931  EHBOND  =         0.0000  RESTRAINT  =         4.0138
 EAMBER (non-restraint)  =         4.0940
Current RMSD from reference:    0.990
Current target RMSD:            0.006
 ------------------------------------------------------------------------------
