-------------------------------------------------------
          Amber 9  SANDER                 Scripps/UCSF 2004
          -------------------------------------------------------

  [-O]verwriting output

File Assignments:

 Here is the input file:

 short md, nve ensemble
 &cntrl
   ntx=5, irest=1,
   ntc=2, ntf=2, tol=0.0000001,
   nstlim=5000, ntt=2,
   ntpr=50, ntwr=10000,
   dt=0.001,  vrand=500, ntave=500,
 /
 &ewald
   nfft1=50, nfft2=50, nfft3=50,
 /

--------------------------------------------------------------------------------
   1.  RESOURCE   USE:
--------------------------------------------------------------------------------

 getting new box info from bottom of inpcrd

 NATOM  =   12288 NTYPES =       2 NBONH =   12288 MBONA  =       0
 NTHETH =       0 MTHETA =       0 NPHIH =       0 MPHIA  =       0
 NHPARM =       0 NPARM  =       0 NNB   =   16384 NRES   =    4096
 NBONA  =       0 NTHETA =       0 NPHIA =       0 NUMBND =       2
 NUMANG =       0 NPTRA  =       0 NATYP =       2 NPHB   =       1
 IFBOX  =       1 NMXRS  =       3 IFCAP =       0 NEXTRA =       0
 NCOPY  =       0

     BOX TYPE: RECTILINEAR

--------------------------------------------------------------------------------
   2.  CONTROL  DATA  FOR  THE  RUN
--------------------------------------------------------------------------------

General flags:
     imin    =       0, nmropt  =       0

Nature and format of input:
     ntx     =       5, irest   =       1, ntrx    =       1

Nature and format of output:
     ntxo    =       1, ntpr    =      50, ntrx    =       1, ntwr    =   10000
     iwrap   =       0, ntwx    =       0, ntwv    =       0, ntwe    =       0
     ioutfm  =       0, ntwprt  =       0, idecomp =       0, rbornstat=      0

Potential function:
     ntf     =       2, ntb     =       1, igb     =       0, nsnb    =      25
     ipol    =       0, gbsa    =       0, iesp    =       0
     dielc   =   1.00000, cut     =   8.00000, intdiel =   1.00000

Frozen or restrained atoms:
     ibelly  =       0, ntr     =       0

Molecular dynamics:
     nstlim  =      5000, nscm    =      1000, nrespa  =         1
     t       =   0.00000, dt      =   0.00100, vlimit  =  20.00000

Anderson (strong collision) temperature regulation:
     ig      =   71277, vrand   =     500
     temp0   = 300.00000, tempi   =   0.00000

SHAKE:
     ntc     =       2, jfastw  =       0
     tol     =   0.00000

Ewald parameters:
     verbose =       0, ew_type =       0, nbflag  =       1, use_pme =       1
     vdwmeth =       1, eedmeth =       1, netfrc  =       1
     Box X =   49.600   Box Y =   49.600   Box Z =   49.600
     Alpha =   90.000   Beta  =   90.000   Gamma =   90.000
     NFFT1 =   50       NFFT2 =   50       NFFT3 =   50
     Cutoff=    8.000   Tol   =0.100E-04
     Ewald Coefficient =  0.34864
     Interpolation order =    4

--------------------------------------------------------------------------------
   3.  ATOMIC COORDINATES AND VELOCITIES
--------------------------------------------------------------------------------

 begin time read from input coords =     1.000 ps

 Number of triangulated 3-point waters found:     4096

     Sum of charges from parm topology file =   0.00000000
     Forcing neutrality...

--------------------------------------------------------------------------------
   4.  RESULTS
 NSTEP =       50   TIME(PS) =       1.050  TEMP(K) =   299.52  PRESS =     0.0
 Etot   =    -32060.3103  EKtot   =      7313.0605  EPtot      =    -39373.3708
 BOND   =         0.0000  ANGLE   =         0.0000  DIHED      =         0.0000
 1-4 NB =         0.0000  1-4 EEL =         0.0000  VDWAALS    =      6052.2267
 EELEC  =    -45425.5975  EHBOND  =         0.0000  RESTRAINT  =         0.0000
 Ewald error estimate:   0.3495E-05
 ------------------------------------------------------------------------------

      A V E R A G E S   O V E R     500 S T E P S

 NSTEP =      500   TIME(PS) =       1.500  TEMP(K) =   298.36  PRESS =     0.0
 Etot   =    -32060.1177  EKtot   =      7284.7373  EPtot      =    -39344.8549
 BOND   =         0.0000  ANGLE   =         0.0000  DIHED      =         0.0000
 1-4 NB =         0.0000  1-4 EEL =         0.0000  VDWAALS    =      6071.8548
 EELEC  =    -45416.7097  EHBOND  =         0.0000  RESTRAINT  =         0.0000
 Ewald error estimate:   0.7793E-04
 ------------------------------------------------------------------------------

      R M S  F L U C T U A T I O N S

 NSTEP =      500   TIME(PS) =       1.500  TEMP(K) =     1.74  PRESS =     0.0
 Etot   =         0.2149  EKtot   =        42.5422  EPtot      =        42.6834
 BOND   =         0.0000  ANGLE   =         0.0000  DIHED      =         0.0000
 1-4 NB =         0.0000  1-4 EEL =         0.0000  VDWAALS    =        83.1725
 EELEC  =        93.9974  EHBOND  =         0.0000  RESTRAINT  =         0.0000
 Ewald error estimate:   0.6027E-04
 ------------------------------------------------------------------------------

      A V E R A G E S   O V E R     500 S T E P S

 NSTEP =     1000   TIME(PS) =       2.000  TEMP(K) =   299.04  PRESS =     0.0
 Etot   =    -31991.6281  EKtot   =      7301.3593  EPtot      =    -39292.9874
 BOND   =         0.0000  ANGLE   =         0.0000  DIHED      =         0.0000
 1-4 NB =         0.0000  1-4 EEL =         0.0000  VDWAALS    =      6012.3234
 EELEC  =    -45305.3108  EHBOND  =         0.0000  RESTRAINT  =         0.0000
 Ewald error estimate:   0.1182E-03
 ------------------------------------------------------------------------------

      R M S  F L U C T U A T I O N S

 NSTEP =     1000   TIME(PS) =       2.000  TEMP(K) =     1.99  PRESS =     0.0
 Etot   =         0.2901  EKtot   =        48.6647  EPtot      =        48.7835
 BOND   =         0.0000  ANGLE   =         0.0000  DIHED      =         0.0000
 1-4 NB =         0.0000  1-4 EEL =         0.0000  VDWAALS    =        92.4868
 EELEC  =       112.4458  EHBOND  =         0.0000  RESTRAINT  =         0.0000
 Ewald error estimate:   0.9806E-04
 ------------------------------------------------------------------------------

      A V E R A G E S   O V E R     500 S T E P S

 NSTEP =     1500   TIME(PS) =       2.500  TEMP(K) =   301.93  PRESS =     0.0
 Etot   =    -31986.7191  EKtot   =      7371.8316  EPtot      =    -39358.5507
 BOND   =         0.0000  ANGLE   =         0.0000  DIHED      =         0.0000
 1-4 NB =         0.0000  1-4 EEL =         0.0000  VDWAALS    =      5991.6209
 EELEC  =    -45350.1716  EHBOND  =         0.0000  RESTRAINT  =         0.0000
 Ewald error estimate:   0.8501E-04
 ------------------------------------------------------------------------------

      R M S  F L U C T U A T I O N S

 NSTEP =     1500   TIME(PS) =       2.500  TEMP(K) =     2.21  PRESS =     0.0
 Etot   =         0.3416  EKtot   =        54.0455  EPtot      =        54.1861
 BOND   =         0.0000  ANGLE   =         0.0000  DIHED      =         0.0000
 1-4 NB =         0.0000  1-4 EEL =         0.0000  VDWAALS    =        78.9261
 EELEC  =       103.1097  EHBOND  =         0.0000  RESTRAINT  =         0.0000
 Ewald error estimate:   0.6353E-04
 ------------------------------------------------------------------------------

      A V E R A G E S   O V E R     500 S T E P S

 NSTEP =     2000   TIME(PS) =       3.000  TEMP(K) =   300.18  PRESS =     0.0
 Etot   =    -31976.5885  EKtot   =      7329.0774  EPtot      =    -39305.6660
 BOND   =         0.0000  ANGLE   =         0.0000  DIHED      =         0.0000
 1-4 NB =         0.0000  1-4 EEL =         0.0000  VDWAALS    =      5956.8862
 EELEC  =    -45262.5522  EHBOND  =         0.0000  RESTRAINT  =         0.0000
 Ewald error estimate:   0.1052E-03
 ------------------------------------------------------------------------------

      R M S  F L U C T U A T I O N S

 NSTEP =     2000   TIME(PS) =       3.000  TEMP(K) =     2.29  PRESS =     0.0
 Etot   =         0.2596  EKtot   =        55.9266  EPtot      =        56.0113
 BOND   =         0.0000  ANGLE   =         0.0000  DIHED      =         0.0000
 1-4 NB =         0.0000  1-4 EEL =         0.0000  VDWAALS    =        95.2501
 EELEC  =       110.9192  EHBOND  =         0.0000  RESTRAINT  =         0.0000
 Ewald error estimate:   0.7136E-04
 ------------------------------------------------------------------------------

      A V E R A G E S   O V E R     500 S T E P S

 NSTEP =     2500   TIME(PS) =       3.500  TEMP(K) =   299.85  PRESS =     0.0
 Etot   =    -31990.8897  EKtot   =      7321.1133  EPtot      =    -39312.0030
 BOND   =         0.0000  ANGLE   =         0.0000  DIHED      =         0.0000
 1-4 NB =         0.0000  1-4 EEL =         0.0000  VDWAALS    =      5937.6807
 EELEC  =    -45249.6837  EHBOND  =         0.0000  RESTRAINT  =         0.0000
 Ewald error estimate:   0.1136E-03
 ------------------------------------------------------------------------------

      R M S  F L U C T U A T I O N S

 NSTEP =     2500   TIME(PS) =       3.500  TEMP(K) =     2.03  PRESS =     0.0
 Etot   =         0.3360  EKtot   =        49.6826  EPtot      =        49.9197
 BOND   =         0.0000  ANGLE   =         0.0000  DIHED      =         0.0000
 1-4 NB =         0.0000  1-4 EEL =         0.0000  VDWAALS    =       103.8427
 EELEC  =       125.3567  EHBOND  =         0.0000  RESTRAINT  =         0.0000
 Ewald error estimate:   0.7472E-04
 ------------------------------------------------------------------------------

      A V E R A G E S   O V E R     500 S T E P S

 NSTEP =     3500   TIME(PS) =       4.500  TEMP(K) =   301.02  PRESS =     0.0
 Etot   =    -31864.0086  EKtot   =      7349.6261  EPtot      =    -39213.6347
 BOND   =         0.0000  ANGLE   =         0.0000  DIHED      =         0.0000
 1-4 NB =         0.0000  1-4 EEL =         0.0000  VDWAALS    =      5934.4246
 EELEC  =    -45148.0593  EHBOND  =         0.0000  RESTRAINT  =         0.0000
 Ewald error estimate:   0.7637E-04
 ------------------------------------------------------------------------------

      R M S  F L U C T U A T I O N S

 NSTEP =     3500   TIME(PS) =       4.500  TEMP(K) =     1.66  PRESS =     0.0
 Etot   =         0.2249  EKtot   =        40.5895  EPtot      =        40.6330
 BOND   =         0.0000  ANGLE   =         0.0000  DIHED      =         0.0000
 1-4 NB =         0.0000  1-4 EEL =         0.0000  VDWAALS    =        83.5079
 EELEC  =        98.0520  EHBOND  =         0.0000  RESTRAINT  =         0.0000
 Ewald error estimate:   0.5903E-04
 ------------------------------------------------------------------------------

      A V E R A G E S   O V E R     500 S T E P S

 NSTEP =     4000   TIME(PS) =       5.000  TEMP(K) =   302.27  PRESS =     0.0
 Etot   =    -31790.6668  EKtot   =      7380.0135  EPtot      =    -39170.6803
 BOND   =         0.0000  ANGLE   =         0.0000  DIHED      =         0.0000
 1-4 NB =         0.0000  1-4 EEL =         0.0000  VDWAALS    =      5955.8375
 EELEC  =    -45126.5178  EHBOND  =         0.0000  RESTRAINT  =         0.0000
 Ewald error estimate:   0.7908E-04
 ------------------------------------------------------------------------------

      R M S  F L U C T U A T I O N S

 NSTEP =     4000   TIME(PS) =       5.000  TEMP(K) =     2.31  PRESS =     0.0
 Etot   =         0.2296  EKtot   =        56.4567  EPtot      =        56.5781
 BOND   =         0.0000  ANGLE   =         0.0000  DIHED      =         0.0000
 1-4 NB =         0.0000  1-4 EEL =         0.0000  VDWAALS    =        68.1233
 EELEC  =        93.8835  EHBOND  =         0.0000  RESTRAINT  =         0.0000
 Ewald error estimate:   0.6441E-04
 ------------------------------------------------------------------------------

      A V E R A G E S   O V E R     500 S T E P S

 NSTEP =     4500   TIME(PS) =       5.500  TEMP(K) =   300.45  PRESS =     0.0
 Etot   =    -31893.1537  EKtot   =      7335.7827  EPtot      =    -39228.9364
 BOND   =         0.0000  ANGLE   =         0.0000  DIHED      =         0.0000
 1-4 NB =         0.0000  1-4 EEL =         0.0000  VDWAALS    =      5975.8003
 EELEC  =    -45204.7367  EHBOND  =         0.0000  RESTRAINT  =         0.0000
 Ewald error estimate:   0.1076E-03
 ------------------------------------------------------------------------------

      R M S  F L U C T U A T I O N S

 NSTEP =     4500   TIME(PS) =       5.500  TEMP(K) =     2.50  PRESS =     0.0
 Etot   =         0.2386  EKtot   =        60.9460  EPtot      =        61.0175
 BOND   =         0.0000  ANGLE   =         0.0000  DIHED      =         0.0000
 1-4 NB =         0.0000  1-4 EEL =         0.0000  VDWAALS    =        93.9554
 EELEC  =       102.0705  EHBOND  =         0.0000  RESTRAINT  =         0.0000
 Ewald error estimate:   0.6898E-04
 ------------------------------------------------------------------------------

      A V E R A G E S   O V E R     500 S T E P S

 NSTEP =     5000   TIME(PS) =       6.000  TEMP(K) =   300.00  PRESS =     0.0
 Etot   =    -31894.5225  EKtot   =      7324.7760  EPtot      =    -39219.2985
 BOND   =         0.0000  ANGLE   =         0.0000  DIHED      =         0.0000
 1-4 NB =         0.0000  1-4 EEL =         0.0000  VDWAALS    =      5901.4208
 EELEC  =    -45120.7193  EHBOND  =         0.0000  RESTRAINT  =         0.0000
 Ewald error estimate:   0.8488E-04
 ------------------------------------------------------------------------------

      R M S  F L U C T U A T I O N S

 NSTEP =     5000   TIME(PS) =       6.000  TEMP(K) =     2.45  PRESS =     0.0
 Etot   =         0.2343  EKtot   =        59.7917  EPtot      =        59.8040
 BOND   =         0.0000  ANGLE   =         0.0000  DIHED      =         0.0000
 1-4 NB =         0.0000  1-4 EEL =         0.0000  VDWAALS    =        59.3138
 EELEC  =        81.5838  EHBOND  =         0.0000  RESTRAINT  =         0.0000
 Ewald error estimate:   0.6613E-04
 ------------------------------------------------------------------------------

      A V E R A G E S   O V E R    5000 S T E P S

 NSTEP =     5000   TIME(PS) =       6.000  TEMP(K) =   300.52  PRESS =     0.0
 Etot   =    -31937.3863  EKtot   =      7337.4176  EPtot      =    -39274.8039
 BOND   =         0.0000  ANGLE   =         0.0000  DIHED      =         0.0000
 1-4 NB =         0.0000  1-4 EEL =         0.0000  VDWAALS    =      5975.6921
 EELEC  =    -45250.4960  EHBOND  =         0.0000  RESTRAINT  =         0.0000
 Ewald error estimate:   0.9325E-04
 ------------------------------------------------------------------------------

      R M S  F L U C T U A T I O N S

 NSTEP =     5000   TIME(PS) =       6.000  TEMP(K) =     2.46  PRESS =     0.0
 Etot   =        74.6213  EKtot   =        60.0593  EPtot      =        78.7715
 BOND   =         0.0000  ANGLE   =         0.0000  DIHED      =         0.0000
 1-4 NB =         0.0000  1-4 EEL =         0.0000  VDWAALS    =        96.4012
 EELEC  =       138.2348  EHBOND  =         0.0000  RESTRAINT  =         0.0000
 Ewald error estimate:   0.7092E-04
 ------------------------------------------------------------------------------
